pglib_opf_case300_ieee.m
function mpc = pglib_opf_case300_ieee
mpc.version = '2';
mpc.baseMVA = 100.0;

%% bus data
%	bus_i	type	Pd	Qd	Gs	Bs	area	Vm	Va	baseKV	zone	Vmax	Vmin
mpc.bus = [
    1	1	63.0 	34.3 	0.0 	0.0 	1	1.0000 	0.0000 	115.0 	1	1.0600 	0.9400;
    2	1	39.2 	10.5 	0.0 	0.0 	1	1.0000 	0.0000 	115.0 	1	1.0600 	0.9400;
    3	1	14.0 	0.0 	0.0 	0.0 	1	1.0000 	0.0000 	230.0 	1	1.0600 	0.9400;
    4	1	0.0 	0.0 	0.0 	0.0 	1	1.0000 	0.0000 	345.0 	1	1.0600 	0.9400;
    5	1	247.1 	91.0 	0.0 	0.0 	1	1.0000 	0.0000 	115.0 	1	1.0600 	0.9400;
    6	1	84.0 	28.7 	0.0 	0.0 	1	1.0000 	0.0000 	115.0 	1	1.0600 	0.9400;
    7	1	0.0 	0.0 	0.0 	0.0 	1	1.0000 	0.0000 	230.0 	1	1.0600 	0.9400;
    8	2	44.1 	9.8 	0.0 	0.0 	1	1.0000 	0.0000 	115.0 	1	1.0600 	0.9400;
    9	1	67.2 	30.1 	0.0 	0.0 	1	1.0000 	0.0000 	115.0 	1	1.0600 	0.9400;
    10	2	107.1 	23.1 	0.0 	0.0 	1	1.0000 	0.0000 	230.0 	1	1.0600 	0.9400;
    11	1	58.1 	14.7 	0.0 	0.0 	1	1.0000 	0.0000 	115.0 	1	1.0600 	0.9400;
    12	1	0.0 	0.0 	0.0 	0.0 	1	1.0000 	0.0000 	230.0 	1	1.0600 	0.9400;
    13	1	40.6 	7.0 	0.0 	0.0 	1	1.0000 	0.0000 	115.0 	1	1.0600 	0.9400;
    14	1	112.0 	42.0 	0.0 	0.0 	1	1.0000 	0.0000 	115.0 	1	1.0600 	0.9400;
    15	1	88.7 	16.1 	0.0 	0.0 	1	1.0000 	0.0000 	115.0 	1	1.0600 	0.9400;
    16	1	0.0 	0.0 	0.0 	0.0 	1	1.0000 	0.0000 	345.0 	1	1.0600 	0.9400;
    17	1	392.7 	154.0 	0.0 	0.0 	1	1.0000 	0.0000 	115.0 	1	1.0600 	0.9400;
    18	1	0.0 	0.0 	0.0 	0.0 	1	1.0000 	0.0000 	230.0 	1	1.0600 	0.9400;
    19	2	423.5 	84.0 	0.0 	0.0 	1	1.0000 	0.0000 	115.0 	1	1.0600 	0.9400;
    20	1	53.9 	0.7 	0.0 	0.0 	1	1.0000 	0.0000 	230.0 	1	1.0600 	0.9400;
    21	1	56.7 	16.1 	0.0 	0.0 	1	1.0000 	0.0000 	115.0 	1	1.0600 	0.9400;
    22	1	14.7 	4.9 	0.0 	0.0 	1	1.0000 	0.0000 	115.0 	1	1.0600 	0.9400;
    23	1	0.0 	0.0 	0.0 	0.0 	1	1.0000 	0.0000 	230.0 	1	1.0600 	0.9400;
    24	1	31.5 	8.4 	0.0 	0.0 	1	1.0000 	0.0000 	115.0 	1	1.0600 	0.9400;
    25	1	19.6 	6.3 	0.0 	0.0 	1	1.0000 	0.0000 	115.0 	1	1.0600 	0.9400;
    26	1	48.3 	9.1 	0.0 	0.0 	1	1.0000 	0.0000 	115.0 	1	1.0600 	0.9400;
    27	1	38.5 	4.2 	0.0 	0.0 	1	1.0000 	0.0000 	115.0 	1	1.0600 	0.9400;
    28	1	0.0 	0.0 	0.0 	0.0 	1	1.0000 	0.0000 	345.0 	1	1.0600 	0.9400;
    29	1	0.0 	0.0 	0.0 	0.0 	1	1.0000 	0.0000 	115.0 	1	1.0600 	0.9400;
    30	1	0.0 	0.0 	0.0 	0.0 	1	1.0000 	0.0000 	230.0 	1	1.0600 	0.9400;
    31	1	59.5 	22.4 	0.0 	0.0 	1	1.0000 	0.0000 	115.0 	1	1.0600 	0.9400;
    32	1	108.5 	12.6 	0.0 	0.0 	1	1.0000 	0.0000 	115.0 	1	1.0600 	0.9400;
    33	1	0.0 	0.0 	0.0 	0.0 	1	1.0000 	0.0000 	345.0 	1	1.0600 	0.9400;
    34	1	32.2 	-14.7 	0.0 	0.0 	1	1.0000 	0.0000 	115.0 	1	1.0600 	0.9400;
    35	1	60.2 	0.0 	0.0 	0.0 	1	1.0000 	0.0000 	115.0 	1	1.0600 	0.9400;
    36	1	0.0 	0.0 	0.0 	0.0 	1	1.0000 	0.0000 	345.0 	1	1.0600 	0.9400;
    37	1	27.3 	6.3 	0.0 	0.0 	1	1.0000 	0.0000 	115.0 	1	1.0600 	0.9400;
    38	1	136.5 	20.3 	0.0 	0.0 	1	1.0000 	0.0000 	115.0 	1	1.0600 	0.9400;
    39	1	0.0 	0.0 	0.0 	0.0 	1	1.0000 	0.0000 	230.0 	1	1.0600 	0.9400;
    40	1	0.0 	0.0 	0.0 	0.0 	1	1.0000 	0.0000 	345.0 	1	1.0600 	0.9400;
    41	1	40.6 	8.3 	0.0 	0.0 	1	1.0000 	0.0000 	115.0 	1	1.0600 	0.9400;
    42	1	28.7 	13.3 	0.0 	0.0 	1	1.0000 	0.0000 	115.0 	1	1.0600 	0.9400;
    43	1	64.4 	18.2 	0.0 	0.0 	1	1.0000 	0.0000 	115.0 	1	1.0600 	0.9400;
    44	1	-3.5 	3.5 	0.0 	0.0 	1	1.0000 	0.0000 	115.0 	1	1.0600 	0.9400;
    45	1	42.7 	19.6 	0.0 	0.0 	1	1.0000 	0.0000 	115.0 	1	1.0600 	0.9400;
    46	1	48.3 	2.1 	0.0 	0.0 	1	1.0000 	0.0000 	115.0 	1	1.0600 	0.9400;
    47	1	7.0 	0.7 	0.0 	0.0 	1	1.0000 	0.0000 	115.0 	1	1.0600 	0.9400;
    48	1	15.4 	7.0 	0.0 	0.0 	1	1.0000 	0.0000 	115.0 	1	1.0600 	0.9400;
    49	1	68.6 	14.0 	0.0 	0.0 	1	1.0000 	0.0000 	115.0 	1	1.0600 	0.9400;
    50	1	9.8 	0.7 	0.0 	0.0 	1	1.0000 	0.0000 	115.0 	1	1.0600 	0.9400;
    51	1	152.6 	74.2 	0.0 	0.0 	1	1.0000 	0.0000 	115.0 	1	1.0600 	0.9400;
    52	1	0.0 	0.0 	0.0 	0.0 	1	1.0000 	0.0000 	230.0 	1	1.0600 	0.9400;
    53	1	158.9 	77.0 	0.0 	0.0 	1	1.0000 	0.0000 	115.0 	1	1.0600 	0.9400;
    54	1	0.0 	0.0 	0.0 	0.0 	1	1.0000 	0.0000 	230.0 	1	1.0600 	0.9400;
    55	2	49.0 	21.0 	0.0 	0.0 	1	1.0000 	0.0000 	115.0 	1	1.0600 	0.9400;
    56	1	0.0 	0.0 	0.0 	0.0 	1	1.0000 	0.0000 	230.0 	1	1.0600 	0.9400;
    57	1	0.0 	0.0 	0.0 	0.0 	1	1.0000 	0.0000 	115.0 	1	1.0600 	0.9400;
    58	1	39.2 	14.0 	0.0 	0.0 	1	1.0000 	0.0000 	115.0 	1	1.0600 	0.9400;
    59	1	81.2 	26.6 	0.0 	0.0 	1	1.0000 	0.0000 	115.0 	1	1.0600 	0.9400;
    60	1	39.9 	13.3 	0.0 	0.0 	1	1.0000 	0.0000 	115.0 	1	1.0600 	0.9400;
    61	1	156.8 	49.7 	0.0 	0.0 	1	1.0000 	0.0000 	115.0 	1	1.0600 	0.9400;
    62	1	0.0 	0.0 	0.0 	0.0 	1	1.0000 	0.0000 	230.0 	1	1.0600 	0.9400;
    63	2	145.6 	74.9 	0.0 	0.0 	1	1.0000 	0.0000 	115.0 	1	1.0600 	0.9400;
    64	1	51.8 	19.6 	0.0 	0.0 	1	1.0000 	0.0000 	115.0 	1	1.0600 	0.9400;
    65	1	0.0 	0.0 	0.0 	0.0 	1	1.0000 	0.0000 	115.0 	1	1.0600 	0.9400;
    66	1	33.6 	9.8 	0.0 	0.0 	1	1.0000 	0.0000 	115.0 	1	1.0600 	0.9400;
    67	1	19.6 	4.9 	0.0 	0.0 	1	1.0000 	0.0000 	115.0 	1	1.0600 	0.9400;
    68	1	0.0 	0.0 	0.0 	0.0 	1	1.0000 	0.0000 	345.0 	1	1.0600 	0.9400;
    69	2	25.9 	9.1 	0.0 	0.0 	1	1.0000 	0.0000 	115.0 	1	1.0600 	0.9400;
    70	1	0.0 	0.0 	0.0 	0.0 	1	1.0000 	0.0000 	230.0 	1	1.0600 	0.9400;
    71	1	0.0 	0.0 	0.0 	0.0 	1	1.0000 	0.0000 	230.0 	1	1.0600 	0.9400;
    72	1	0.0 	0.0 	0.0 	0.0 	1	1.0000 	0.0000 	230.0 	1	1.0600 	0.9400;
    73	1	0.0 	0.0 	0.0 	0.0 	1	1.0000 	0.0000 	230.0 	1	1.0600 	0.9400;
    74	1	30.9 	0.0 	0.0 	0.0 	1	1.0000 	0.0000 	115.0 	1	1.0600 	0.9400;
    75	1	46.2 	0.0 	0.0 	0.0 	1	1.0000 	0.0000 	115.0 	1	1.0600 	0.9400;
    76	2	12.2 	0.0 	0.0 	0.0 	1	1.0000 	0.0000 	115.0 	1	1.0600 	0.9400;
    77	2	11.1 	0.0 	0.0 	0.0 	1	1.0000 	0.0000 	115.0 	1	1.0600 	0.9400;
    78	1	42.2 	0.0 	0.0 	0.0 	1	1.0000 	0.0000 	115.0 	1	1.0600 	0.9400;
    79	1	27.9 	0.0 	0.0 	0.0 	1	1.0000 	0.0000 	115.0 	1	1.0600 	0.9400;
    80	2	46.7 	0.0 	0.0 	0.0 	1	1.0000 	0.0000 	115.0 	1	1.0600 	0.9400;
    81	1	58.5 	0.0 	0.0 	0.0 	1	1.0000 	0.0000 	115.0 	1	1.0600 	0.9400;
    82	1	0.0 	0.0 	0.0 	0.0 	1	1.0000 	0.0000 	115.0 	1	1.0600 	0.9400;
    83	1	54.5 	0.0 	0.0 	0.0 	1	1.0000 	0.0000 	115.0 	1	1.0600 	0.9400;
    84	1	22.4 	0.0 	0.0 	0.0 	1	1.0000 	0.0000 	115.0 	1	1.0600 	0.9400;
    85	1	6.0 	0.0 	0.0 	0.0 	1	1.0000 	0.0000 	115.0 	1	1.0600 	0.9400;
    86	1	34.7 	0.0 	0.0 	0.0 	1	1.0000 	0.0000 	115.0 	1	1.0600 	0.9400;
    87	1	3.2 	0.0 	0.0 	0.0 	1	1.0000 	0.0000 	115.0 	1	1.0600 	0.9400;
    88	2	78.5 	0.0 	0.0 	0.0 	1	1.0000 	0.0000 	115.0 	1	1.0600 	0.9400;
    89	1	21.5 	0.0 	0.0 	0.0 	1	1.0000 	0.0000 	115.0 	1	1.0600 	0.9400;
    90	1	44.1 	0.0 	0.0 	0.0 	1	1.0000 	0.0000 	115.0 	1	1.0600 	0.9400;
    91	1	13.7 	0.0 	0.0 	0.0 	1	1.0000 	0.0000 	115.0 	1	1.0600 	0.9400;
    92	1	18.3 	0.0 	0.0 	0.0 	1	1.0000 	0.0000 	115.0 	1	1.0600 	0.9400;
    93	1	12.7 	0.0 	0.0 	0.0 	1	1.0000 	0.0000 	115.0 	1	1.0600 	0.9400;
    94	1	0.0 	0.0 	0.0 	0.0 	1	1.0000 	0.0000 	115.0 	2	1.0600 	0.9400;
    95	1	0.0 	0.0 	0.0 	0.0 	1	1.0000 	0.0000 	115.0 	2	1.0600 	0.9400;
    96	1	0.0 	0.0 	0.0 	325.0 	1	1.0000 	0.0000 	115.0 	2	1.0600 	0.9400;
    97	1	9.9 	455.0 	0.0 	0.0 	1	1.0000 	0.0000 	115.0 	2	1.0600 	0.9400;
    98	2	0.0 	0.0 	0.0 	0.0 	1	1.0000 	0.0000 	115.0 	2	1.0600 	0.9400;
    99	1	543.9 	150.5 	0.0 	55.0 	1	1.0000 	0.0000 	115.0 	2	1.0600 	0.9400;
    100	1	374.5 	38.5 	0.0 	0.0 	1	1.0000 	0.0000 	115.0 	2	1.0600 	0.9400;
    101	1	160.4 	8.3 	0.0 	0.0 	1	1.0000 	0.0000 	115.0 	2	1.0600 	0.9400;
    102	1	54.6 	1.0 	0.0 	0.0 	1	1.0000 	0.0000 	115.0 	2	1.0600 	0.9400;
    103	2	193.5 	41.5 	0.0 	0.0 	1	1.0000 	0.0000 	115.0 	2	1.0600 	0.9400;
    104	2	360.4 	57.9 	0.0 	0.0 	1	1.0000 	0.0000 	115.0 	2	1.0600 	0.9400;
    105	1	40.5 	3.6 	0.0 	0.0 	1	1.0000 	0.0000 	115.0 	2	1.0600 	0.9400;
    106	1	266.6 	25.9 	0.0 	0.0 	1	1.0000 	0.0000 	230.0 	2	1.0600 	0.9400;
    107	1	0.0 	0.0 	0.0 	0.0 	1	1.0000 	0.0000 	230.0 	2	1.0600 	0.9400;
    108	1	0.0 	0.0 	0.0 	0.0 	1	1.0000 	0.0000 	230.0 	2	1.0600 	0.9400;
    109	1	0.0 	0.0 	0.0 	0.0 	1	1.0000 	0.0000 	230.0 	2	1.0600 	0.9400;
    110	1	0.0 	0.0 	0.0 	0.0 	1	1.0000 	0.0000 	230.0 	2	1.0600 	0.9400;
    111	1	0.0 	0.0 	0.0 	0.0 	1	1.0000 	0.0000 	230.0 	2	1.0600 	0.9400;
    112	1	0.0 	0.0 	0.0 	0.0 	1	1.0000 	0.0000 	230.0 	2	1.0600 	0.9400;
    113	1	0.0 	0.0 	0.0 	0.0 	1	1.0000 	0.0000 	230.0 	2	1.0600 	0.9400;
    114	1	118.4 	29.1 	0.0 	0.0 	1	1.0000 	0.0000 	230.0 	2	1.0600 	0.9400;
    115	1	38.6 	12.7 	0.0 	0.0 	1	1.0000 	0.0000 	230.0 	2	1.0600 	0.9400;
    116	1	191.5 	69.9 	0.0 	0.0 	1	1.0000 	0.0000 	230.0 	2	1.0600 	0.9400;
    117	2	713.4 	94.6 	0.0 	0.0 	1	1.0000 	0.0000 	230.0 	2	1.0600 	0.9400;
    118	1	416.5 	58.3 	0.0 	0.0 	1	1.0000 	0.0000 	115.0 	2	1.0600 	0.9400;
    119	1	271.4 	80.3 	0.0 	0.0 	1	1.0000 	0.0000 	230.0 	2	1.0600 	0.9400;
    120	2	101.5 	40.6 	0.0 	0.0 	1	1.0000 	0.0000 	230.0 	2	1.0600 	0.9400;
    121	1	39.6 	17.2 	0.0 	0.0 	1	1.0000 	0.0000 	230.0 	2	1.0600 	0.9400;
    122	2	62.7 	24.9 	0.0 	0.0 	1	1.0000 	0.0000 	230.0 	2	1.0600 	0.9400;
    123	1	0.0 	0.0 	0.0 	0.0 	1	1.0000 	0.0000 	230.0 	2	1.0600 	0.9400;
    124	1	16.8 	9.8 	0.0 	0.0 	1	1.0000 	0.0000 	230.0 	2	1.0600 	0.9400;
    125	2	0.0 	0.0 	0.0 	0.0 	1	1.0000 	0.0000 	230.0 	2	1.0600 	0.9400;
    126	2	0.0 	0.0 	0.0 	0.0 	1	1.0000 	0.0000 	230.0 	2	1.0600 	0.9400;
    127	1	44.1 	17.5 	0.0 	0.0 	1	1.0000 	0.0000 	230.0 	2	1.0600 	0.9400;
    128	2	0.0 	0.0 	0.0 	0.0 	1	1.0000 	0.0000 	230.0 	2	1.0600 	0.9400;
    129	1	0.0 	0.0 	0.0 	0.0 	1	1.0000 	0.0000 	230.0 	2	1.0600 	0.9400;
    130	1	0.0 	0.0 	0.0 	0.0 	1	1.0000 	0.0000 	230.0 	2	1.0600 	0.9400;
    131	2	11.9 	6.3 	0.0 	0.0 	1	1.0000 	0.0000 	230.0 	2	1.0600 	0.9400;
    132	2	0.0 	0.0 	0.0 	0.0 	1	1.0000 	0.0000 	230.0 	2	1.0600 	0.9400;
    133	1	49.0 	3.5 	0.0 	34.5 	1	1.0000 	0.0000 	115.0 	2	1.0600 	0.9400;
    134	1	140.0 	35.0 	0.0 	0.0 	1	1.0000 	0.0000 	230.0 	2	1.0600 	0.9400;
    135	2	52.5 	35.0 	0.0 	0.0 	1	1.0000 	0.0000 	115.0 	2	1.0600 	0.9400;
    136	1	86.5 	-17.0 	0.0 	0.0 	1	1.0000 	0.0000 	230.0 	2	1.0600 	0.9400;
    137	1	0.0 	0.0 	0.0 	0.0 	1	1.0000 	0.0000 	230.0 	2	1.0600 	0.9400;
    138	1	23.1 	11.6 	0.0 	0.0 	1	1.0000 	0.0000 	230.0 	2	1.0600 	0.9400;
    139	1	0.0 	0.0 	0.0 	0.0 	1	1.0000 	0.0000 	230.0 	2	1.0600 	0.9400;
    140	1	24.5 	10.5 	0.0 	0.0 	1	1.0000 	0.0000 	230.0 	2	1.0600 	0.9400;
    141	1	59.5 	16.8 	0.0 	0.0 	1	1.0000 	0.0000 	230.0 	2	1.0600 	0.9400;
    142	1	0.0 	0.3 	0.0 	0.0 	1	1.0000 	0.0000 	230.0 	2	1.0600 	0.9400;
    143	1	0.0 	0.0 	0.0 	-212.0 	1	1.0000 	0.0000 	230.0 	2	1.0600 	0.9400;
    144	1	0.0 	0.0 	0.0 	0.0 	1	1.0000 	0.0000 	230.0 	2	1.0600 	0.9400;
    145	1	0.0 	0.0 	0.0 	-103.0 	1	1.0000 	0.0000 	230.0 	2	1.0600 	0.9400;
    146	1	209.9 	67.0 	0.0 	0.0 	1	1.0000 	0.0000 	230.0 	2	1.0600 	0.9400;
    147	1	0.0 	0.0 	0.0 	0.0 	1	1.0000 	0.0000 	230.0 	2	1.0600 	0.9400;
    148	1	0.0 	0.0 	0.0 	0.0 	1	1.0000 	0.0000 	230.0 	2	1.0600 	0.9400;
    149	2	337.3 	143.5 	0.0 	0.0 	1	1.0000 	0.0000 	115.0 	2	1.0600 	0.9400;
    150	2	534.5 	203.8 	0.0 	0.0 	1	1.0000 	0.0000 	115.0 	2	1.0600 	0.9400;
    151	1	18.6 	0.0 	0.0 	0.0 	1	1.0000 	0.0000 	115.0 	2	1.0600 	0.9400;
    152	1	114.5 	30.1 	0.0 	53.0 	1	1.0000 	0.0000 	115.0 	2	1.0600 	0.9400;
    153	1	0.0 	0.0 	0.0 	0.0 	1	1.0000 	0.0000 	115.0 	2	1.0600 	0.9400;
    154	1	123.2 	58.1 	0.0 	0.0 	1	1.0000 	0.0000 	115.0 	2	1.0600 	0.9400;
    155	2	3.5 	2.8 	0.0 	0.0 	1	1.0000 	0.0000 	115.0 	2	1.0600 	0.9400;
    156	2	19.6 	8.4 	0.0 	0.0 	1	1.0000 	0.0000 	115.0 	2	1.0600 	0.9400;
    157	1	299.2 	121.5 	0.0 	0.0 	1	1.0000 	0.0000 	115.0 	2	1.0600 	0.9400;
    158	1	51.8 	20.3 	0.0 	45.0 	1	1.0000 	0.0000 	115.0 	2	1.0600 	0.9400;
    159	1	48.7 	34.5 	0.0 	0.0 	1	1.0000 	0.0000 	115.0 	2	1.0600 	0.9400;
    160	1	51.4 	0.0 	0.0 	0.0 	1	1.0000 	0.0000 	230.0 	2	1.0600 	0.9400;
    161	1	168.5 	62.3 	0.0 	0.0 	1	1.0000 	0.0000 	230.0 	2	1.0600 	0.9400;
    162	1	28.0 	2.8 	0.0 	0.0 	1	1.0000 	0.0000 	115.0 	2	1.0600 	0.9400;
    163	1	95.8 	11.6 	0.0 	0.0 	1	1.0000 	0.0000 	230.0 	2	1.0600 	0.9400;
    164	2	0.0 	0.0 	0.0 	0.0 	1	1.0000 	0.0000 	230.0 	2	1.0600 	0.9400;
    165	2	41.9 	17.0 	0.0 	0.0 	1	1.0000 	0.0000 	230.0 	2	1.0600 	0.9400;
    166	2	41.9 	17.0 	0.0 	0.0 	1	1.0000 	0.0000 	230.0 	2	1.0600 	0.9400;
    167	1	127.8 	30.5 	0.0 	0.0 	1	1.0000 	0.0000 	230.0 	2	1.0600 	0.9400;
    168	1	4.9 	1.4 	0.0 	0.0 	1	1.0000 	0.0000 	66.0 	3	1.0600 	0.9400;
    169	2	0.0 	0.0 	0.0 	-150.0 	1	1.0000 	0.0000 	345.0 	3	1.0600 	0.9400;
    170	2	342.3 	37.1 	0.0 	0.0 	1	1.0000 	0.0000 	230.0 	3	1.0600 	0.9400;
    171	1	560.0 	50.4 	0.0 	0.0 	1	1.0000 	0.0000 	230.0 	3	1.0600 	0.9400;
    172	1	0.0 	0.0 	0.0 	0.0 	1	1.0000 	0.0000 	66.0 	3	1.0600 	0.9400;
    173	1	0.0 	0.0 	0.0 	0.0 	1	1.0000 	0.0000 	345.0 	3	1.0600 	0.9400;
    174	1	0.0 	0.0 	0.0 	0.0 	1	1.0000 	0.0000 	345.0 	3	1.0600 	0.9400;
    175	1	7.0 	2.1 	0.0 	0.0 	1	1.0000 	0.0000 	115.0 	3	1.0600 	0.9400;
    176	1	30.1 	9.8 	0.0 	0.0 	1	1.0000 	0.0000 	115.0 	3	1.0600 	0.9400;
    177	2	44.8 	14.7 	0.0 	0.0 	1	1.0000 	0.0000 	115.0 	3	1.0600 	0.9400;
    178	1	24.5 	8.4 	0.0 	0.0 	1	1.0000 	0.0000 	115.0 	3	1.0600 	0.9400;
    179	1	18.9 	8.4 	0.0 	0.0 	1	1.0000 	0.0000 	115.0 	3	1.0600 	0.9400;
    180	1	28.7 	9.8 	0.0 	0.0 	1	1.0000 	0.0000 	66.0 	1	1.0600 	0.9400;
    181	1	26.6 	9.1 	0.0 	0.0 	1	1.0000 	0.0000 	66.0 	3	1.0600 	0.9400;
    182	1	29.4 	9.8 	0.0 	0.0 	1	1.0000 	0.0000 	115.0 	3	1.0600 	0.9400;
    183	1	50.4 	16.8 	0.0 	0.0 	1	1.0000 	0.0000 	66.0 	3	1.0600 	0.9400;
    184	1	0.0 	-3.5 	0.0 	0.0 	1	1.0000 	0.0000 	66.0 	3	1.0600 	0.9400;
    185	1	8.4 	1.4 	0.0 	0.0 	1	1.0000 	0.0000 	66.0 	3	1.0600 	0.9400;
    186	1	-14.7 	-9.9 	0.0 	0.0 	1	1.0000 	0.0000 	66.0 	1	1.0600 	0.9400;
    187	1	4.9 	1.4 	0.0 	0.0 	1	1.0000 	0.0000 	66.0 	3	1.0600 	0.9400;
    188	1	26.6 	9.1 	0.0 	0.0 	1	1.0000 	0.0000 	66.0 	3	1.0600 	0.9400;
    189	1	0.0 	0.0 	0.0 	0.0 	1	1.0000 	0.0000 	115.0 	3	1.0600 	0.9400;
    190	1	67.2 	4.9 	0.0 	0.0 	1	1.0000 	0.0000 	115.0 	3	1.0600 	0.9400;
    191	1	0.0 	0.0 	0.0 	0.0 	1	1.0000 	0.0000 	138.0 	3	1.0600 	0.9400;
    192	2	0.0 	0.0 	0.0 	0.0 	1	1.0000 	0.0000 	16.5 	3	1.0600 	0.9400;
    193	1	15.4 	11.2 	0.0 	0.0 	1	1.0000 	0.0000 	138.0 	3	1.0600 	0.9400;
    194	1	32.9 	18.2 	0.0 	0.0 	1	1.0000 	0.0000 	138.0 	3	1.0600 	0.9400;
    195	1	123.2 	73.5 	0.0 	0.0 	1	1.0000 	0.0000 	138.0 	3	1.0600 	0.9400;
    196	1	70.0 	52.5 	0.0 	0.0 	1	1.0000 	0.0000 	138.0 	3	1.0600 	0.9400;
    197	1	91.7 	67.2 	0.0 	0.0 	1	1.0000 	0.0000 	138.0 	3	1.0600 	0.9400;
    198	1	0.0 	0.0 	0.0 	0.0 	1	1.0000 	0.0000 	345.0 	3	1.0600 	0.9400;
    199	2	199.5 	70.0 	0.0 	0.0 	1	1.0000 	0.0000 	138.0 	3	1.0600 	0.9400;
    200	2	119.7 	49.0 	0.0 	0.0 	1	1.0000 	0.0000 	138.0 	3	1.0600 	0.9400;
...
];

%% generator data
%	bus	Pg	Qg	Qmax	Qmin	Vg	mBase	status	Pmax	Pmin
mpc.gen = [
    8	0.0 	0.0 	150.0 	-10.0 	1.0 	100.0 	1	0.0 	0.0 ;
    10	0.0 	0.0 	140.0 	-20.0 	1.0 	100.0 	1	0.0 	0.0 ;
    19	0.0 	0.0 	875.0 	-60.0 	1.0 	100.0 	1	0.0 	0.0 ;
    55	0.0 	0.0 	80.0 	-25.0 	1.0 	100.0 	1	0.0 	0.0 ;
    63	0.0 	23.5 	140.0 	12.0 	1.0 	100.0 	1	0.0 	0.0 ;
    69	724.0 	0.0 	240.0 	-240.0 	1.0 	100.0 	1	1448.0 	0.0 ;
    76	92.5 	41.0 	93.0 	-33.0 	1.0 	100.0 	1	370.0 	0.0 ;
    77	180.0 	0.0 	153.0 	-153.0 	1.0 	100.0 	1	720.0 	0.0 ;
    80	46.5 	8.5 	47.0 	-30.0 	1.0 	100.0 	1	186.0 	0.0 ;
    88	98.5 	26.5 	77.0 	-72.0 	1.0 	100.0 	1	394.0 	0.0 ;
    98	1020.5 	260.5 	1321.0 	-500.0 	1.0 	100.0 	1	2041.0 	0.0 ;
    103	160.5 	30.0 	200.0 	-60.0 	1.0 	100.0 	1	360.0 	0.0 ;
    104	0.0 	87.5 	350.0 	-25.0 	1.0 	100.0 	1	0.0 	0.0 ;
    117	0.0 	112.5 	350.0 	-125.0 	1.0 	100.0 	1	0.0 	0.0 ;
    120	148.5 	12.5 	75.0 	-50.0 	1.0 	100.0 	1	330.0 	0.0 ;
    122	400.0 	100.0 	300.0 	-300.0 	1.0 	100.0 	1	800.0 	0.0 ;
    125	45.5 	10.0 	60.0 	-15.0 	1.0 	100.0 	1	91.0 	0.0 ;
    126	160.0 	25.0 	100.0 	-150.0 	1.0 	100.0 	1	320.0 	0.0 ;
    128	138.5 	12.5 	50.0 	-25.0 	1.0 	100.0 	1	277.0 	0.0 ;
    131	303.0 	62.5 	175.0 	-150.0 	1.0 	100.0 	1	606.0 	0.0 ;
    132	121.0 	20.0 	90.0 	-75.0 	1.0 	100.0 	1	242.0 	0.0 ;
    135	0.0 	2.5 	60.0 	-90.0 	1.0 	100.0 	1	0.0 	0.0 ;
    149	165.0 	25.0 	350.0 	-40.0 	1.0 	100.0 	1	330.0 	0.0 ;
    150	0.0 	50.0 	500.0 	-50.0 	1.0 	100.0 	1	0.0 	0.0 ;
    155	139.0 	22.5 	90.0 	-45.0 	1.0 	100.0 	1	278.0 	0.0 ;
    156	62.5 	10.0 	140.0 	-15.0 	1.0 	100.0 	1	125.0 	0.0 ;
    164	125.0 	15.0 	80.0 	-50.0 	1.0 	100.0 	1	250.0 	0.0 ;
    165	1232.5 	150.0 	400.0 	-100.0 	1.0 	100.0 	1	2465.0 	0.0 ;
    166	812.0 	150.0 	400.0 	-100.0 	1.0 	100.0 	1	1624.0 	0.0 ;
    169	257.5 	0.0 	258.0 	-774.0 	1.0 	100.0 	1	580.0 	0.0 ;
    170	1070.0 	0.0 	1000.0 	-1000.0 	1.0 	100.0 	1	2140.0 	0.0 ;
    177	215.0 	0.0 	215.0 	-215.0 	1.0 	100.0 	1	500.0 	0.0 ;
    192	144.0 	0.0 	144.0 	-144.0 	1.0 	100.0 	1	350.0 	0.0 ;
    199	230.0 	0.0 	60.0 	-180.0 	1.0 	100.0 	1	460.0 	0.0 ;
    200	277.0 	0.0 	400.0 	-277.0 	1.0 	100.0 	1	554.0 	0.0 ;
    201	261.5 	0.0 	262.0 	-262.0 	1.0 	100.0 	1	523.0 	0.0 ;
    206	218.0 	0.0 	320.0 	-218.0 	1.0 	100.0 	1	436.0 	0.0 ;
    209	229.0 	0.0 	229.0 	-229.0 	1.0 	100.0 	1	458.0 	0.0 ;
    212	170.5 	0.0 	230.0 	-171.0 	1.0 	100.0 	1	380.0 	0.0 ;
    215	440.5 	0.0 	300.0 	-300.0 	1.0 	100.0 	1	881.0 	0.0 ;
    217	133.5 	0.0 	400.0 	-134.0 	1.0 	100.0 	1	300.0 	0.0 ;
    218	310.5 	0.0 	311.0 	-311.0 	1.0 	100.0 	1	621.0 	0.0 ;
    220	563.5 	0.0 	564.0 	-564.0 	1.0 	100.0 	1	1127.0 	0.0 ;
    221	106.0 	70.0 	150.0 	40.0 	1.0 	100.0 	1	212.0 	0.0 ;
    222	171.0 	60.0 	80.0 	10.0 	1.0 	100.0 	1	342.0 	0.0 ;
    247	284.0 	0.0 	210.0 	-210.0 	1.0 	100.0 	1	568.0 	0.0 ;
    248	335.0 	0.0 	280.0 	-280.0 	1.0 	100.0 	1	670.0 	0.0 ;
    249	700.5 	0.0 	540.0 	-420.0 	1.0 	100.0 	1	1401.0 	0.0 ;
    250	334.0 	0.0 	525.0 	-100.0 	1.0 	100.0 	1	668.0 	0.0 ;
    251	313.0 	0.0 	224.0 	-224.0 	1.0 	100.0 	1	626.0 	0.0 ;
    252	245.0 	122.5 	300.0 	0.0 	1.0 	100.0 	1	490.0 	0.0 ;
    253	110.0 	55.0 	110.0 	-170.0 	1.0 	100.0 	1	440.0 	0.0 ;
    254	271.5 	0.0 	224.0 	-224.0 	1.0 	100.0 	1	1086.0 	0.0 ;
    255	290.0 	0.0 	200.0 	-200.0 	1.0 	100.0 	1	580.0 	0.0 ;
    256	66.0 	21.0 	70.0 	-30.0 	1.0 	100.0 	1	132.0 	0.0 ;
    257	359.0 	5.0 	50.0 	0.0 	1.0 	100.0 	1	0.0 	0.0 ;
    258	79.0 	12.5 	140.0 	0.0 	1.0 	100.0 	1	158.0 	0.0 ;
    259	167.0 	0.0 	90.0 	-90.0 	1.0 	100.0 	1	334.0 	0.0 ;
    260	878.5 	0.0 	525.0 	-150.0 	1.0 	100.0 	1	1757.0 	0.0 ;
    261	284.0 	75.0 	200.0 	0.0 	1.0 	100.0 	1	568.0 	0.0 ;
    262	101.5 	43.5 	87.0 	0.0 	1.0 	100.0 	1	203.0 	0.0 ;
    263	863.0 	250.0 	600.0 	-100.0 	1.0 	100.0 	1	1726.0 	0.0 ;
    264	1012.5 	100.0 	325.0 	-125.0 	1.0 	100.0 	1	2025.0 	0.0 ;
    265	312.0 	50.0 	300.0 	-200.0 	1.0 	100.0 	1	624.0 	0.0 ;
    267	0.0 	0.0 	17.4 	-17.4 	1.0 	100.0 	1	0.0 	0.0 ;
    292	0.0 	0.0 	20.0 	-17.4 	1.0 	100.0 	1	0.0 	0.0 ;
    294	0.0 	0.0 	20.0 	-12.8 	1.0 	100.0 	1	0.0 	0.0 ;
    295	42.0 	0.0 	280.0 	-38.0 	1.0 	100.0 	1	168.0 	0.0 ;
    296	18.5 	0.0 	52.5 	-6.0 	1.0 	100.0 	1	0.0 	0.0 ;
];

%% generator cost data
%	2	startup	shutdown	n	c(n-1)	...	c0
mpc.gencost = [
    2	0	0	3	0.0100 	40.0000 	0.0000;
    2	0	0	3	0.0100 	40.0000 	0.0000;
    2	0	0	3	0.0100 	40.0000 	0.0000;
    2	0	0	3	0.0100 	40.0000 	0.0000;
    2	0	0	3	0.0100 	40.0000 	0.0000;
    2	0	0	3	0.0267 	20.0000 	0.0000;
    2	0	0	3	0.0645 	20.0000 	0.0000;
    2	0	0	3	0.0345 	20.0000 	0.0000;
    2	0	0	3	0.1471 	20.0000 	0.0000;
    2	0	0	3	0.0855 	20.0000 	0.0000;
    2	0	0	3	0.0052 	20.0000 	0.0000;
    2	0	0	3	0.0417 	20.0000 	0.0000;
    2	0	0	3	0.0100 	40.0000 	0.0000;
    2	0	0	3	0.0100 	40.0000 	0.0000;
    2	0	0	3	0.0356 	20.0000 	0.0000;
    2	0	0	3	0.0144 	20.0000 	0.0000;
    2	0	0	3	0.1190 	20.0000 	0.0000;
    2	0	0	3	0.0461 	20.0000 	0.0000;
    2	0	0	3	0.0971 	20.0000 	0.0000;
    2	0	0	3	0.0269 	20.0000 	0.0000;
    2	0	0	3	0.0463 	20.0000 	0.0000;
    2	0	0	3	0.0100 	40.0000 	0.0000;
    2	0	0	3	0.0488 	20.0000 	0.0000;
    2	0	0	3	0.0100 	40.0000 	0.0000;
    2	0	0	3	0.0439 	20.0000 	0.0000;
    2	0	0	3	0.1190 	20.0000 	0.0000;
    2	0	0	3	0.0500 	20.0000 	0.0000;
    2	0	0	3	0.0083 	20.0000 	0.0000;
    2	0	0	3	0.0083 	20.0000 	0.0000;
    2	0	0	3	0.0211 	20.0000 	0.0000;
    2	0	0	3	0.0051 	20.0000 	0.0000;
    2	0	0	3	0.0236 	20.0000 	0.0000;
    2	0	0	3	0.0368 	20.0000 	0.0000;
    2	0	0	3	0.1000 	20.0000 	0.0000;
    2	0	0	3	0.0222 	20.0000 	0.0000;
    2	0	0	3	0.0400 	20.0000 	0.0000;
    2	0	0	3	0.0330 	20.0000 	0.0000;
    2	0	0	3	0.0290 	20.0000 	0.0000;
    2	0	0	3	0.0333 	20.0000 	0.0000;
    2	0	0	3	0.0167 	20.0000 	0.0000;
    2	0	0	3	0.0400 	20.0000 	0.0000;
    2	0	0	3	0.0182 	20.0000 	0.0000;
    2	0	0	3	0.0174 	20.0000 	0.0000;
    2	0	0	3	0.0588 	20.0000 	0.0000;
    2	0	0	3	0.1190 	20.0000 	0.0000;
    2	0	0	3	0.0214 	20.0000 	0.0000;
    2	0	0	3	0.0161 	20.0000 	0.0000;
    2	0	0	3	0.0083 	20.0000 	0.0000;
    2	0	0	3	0.0427 	20.0000 	0.0000;
    2	0	0	3	0.0269 	20.0000 	0.0000;
    2	0	0	3	0.0303 	20.0000 	0.0000;
    2	0	0	3	0.0541 	20.0000 	0.0000;
    2	0	0	3	0.0244 	20.0000 	0.0000;
    2	0	0	3	0.0200 	20.0000 	0.0000;
    2	0	0	3	0.2703 	20.0000 	0.0000;
    2	0	0	3	0.0100 	40.0000 	0.0000;
    2	0	0	3	0.2222 	20.0000 	0.0000;
    2	0	0	3	0.0606 	20.0000 	0.0000;
    2	0	0	3	0.0250 	20.0000 	0.0000;
    2	0	0	3	0.0250 	20.0000 	0.0000;
    2	0	0	3	0.0862 	20.0000 	0.0000;
    2	0	0	3	0.0077 	20.0000 	0.0000;
    2	0	0	3	0.0143 	20.0000 	0.0000;
    2	0	0	3	0.0181 	20.0000 	0.0000;
    2	0	0	3	0.0100 	40.0000 	0.0000;
    2	0	0	3	0.0100 	40.0000 	0.0000;
    2	0	0	3	0.0100 	40.0000 	0.0000;
    2	0	0	3	0.2000 	20.0000 	0.0000;
    2	0	0	3	1.2500 	20.0000 	0.0000;
];

%% branch data
%	fbus	tbus	r	x	b	rateA	rateB	rateC	ratio	angle	status	angmin	angmax
mpc.branch = [
     31	266	0.00006 	0.00046 	0.0000 	9900.0 	63230.0 	63230.0 	1.0 	0.0 	1	-360.0 	360.0;
    266	270	0.00080 	0.00348 	0.0000 	8215.0 	8215.0 	8215.0 	0.0 	0.0 	1	-360.0 	360.0;
    266	271	0.02439 	0.43682 	0.0000 	68.0 	68.0 	68.0 	1.0 	0.0 	1	-360.0 	360.0;
    266	273	0.03624 	0.64898 	0.0000 	46.0 	46.0 	46.0 	1.0 	0.0 	1	-360.0 	360.0;
    270	292	0.01578 	0.37486 	0.0000 	79.0 	79.0 	79.0 	1.0 	0.0 	1	-360.0 	360.0;
    270	293	0.01578 	0.37486 	0.0000 	79.0 	79.0 	79.0 	0.9 	0.0 	1	-360.0 	360.0;
    270	294	0.01602 	0.38046 	0.0000 	78.0 	78.0 	78.0 	1.0 	0.0 	1	-360.0 	360.0;
    270	295	0.00000 	0.15200 	0.0000 	193.0 	193.0 	193.0 	1.0 	0.0 	1	-360.0 	360.0;
    270	296	0.00000 	0.80000 	0.0000 	37.0 	37.0 	37.0 	1.0 	0.0 	1	-360.0 	360.0;
    271	272	0.05558 	0.24666 	0.0000 	117.0 	117.0 	117.0 	0.0 	0.0 	1	-360.0 	360.0;
    271	268	0.11118 	0.49332 	0.0000 	59.0 	59.0 	59.0 	0.0 	0.0 	1	-360.0 	360.0;
    271	268	0.11118 	0.49332 	0.0000 	59.0 	59.0 	59.0 	0.0 	0.0 	1	-360.0 	360.0;
    273	267	0.07622 	0.43286 	0.0000 	67.0 	67.0 	67.0 	0.0 	0.0 	1	-360.0 	360.0;
    273	267	0.07622 	0.43286 	0.0000 	67.0 	67.0 	67.0 	0.0 	0.0 	1	-360.0 	360.0;
    267	274	0.05370 	0.07026 	0.0000 	332.0 	332.0 	332.0 	0.0 	0.0 	1	-360.0 	360.0;
    274	276	1.10680 	0.95278 	0.0000 	21.0 	21.0 	21.0 	0.0 	0.0 	1	-360.0 	360.0;
    274	275	0.44364 	2.81520 	0.0000 	11.0 	11.0 	11.0 	1.0 	0.0 	1	-360.0 	360.0;
    267	277	0.50748 	3.22020 	0.0000 	9.0 	9.0 	9.0 	1.0 	0.0 	1	-360.0 	360.0;
    276	278	0.66688 	3.94400 	0.0000 	8.0 	8.0 	8.0 	1.0 	0.0 	1	-360.0 	360.0;
    276	279	0.61130 	3.61520 	0.0000 	8.0 	8.0 	8.0 	1.0 	0.0 	1	-360.0 	360.0;
    272	297	0.44120 	2.96680 	0.0000 	10.0 	10.0 	10.0 	1.0 	0.0 	1	-360.0 	360.0;
    272	298	0.30792 	2.05700 	0.0000 	15.0 	15.0 	15.0 	1.0 	0.0 	1	-360.0 	360.0;
    272	268	0.05580 	0.24666 	0.0000 	116.0 	116.0 	116.0 	0.0 	0.0 	1	-360.0 	360.0;
    268	280	0.73633 	4.67240 	0.0000 	7.0 	7.0 	7.0 	1.0 	0.0 	1	-360.0 	360.0;
    268	281	0.76978 	4.88460 	0.0000 	6.0 	6.0 	6.0 	1.0 	0.0 	1	-360.0 	360.0;
    268	282	0.75732 	4.80560 	0.0000 	7.0 	7.0 	7.0 	1.0 	0.0 	1	-360.0 	360.0;
    268	291	0.07378 	0.06352 	0.0000 	302.0 	302.0 	302.0 	0.0 	0.0 	1	-360.0 	360.0;
    291	269	0.03832 	0.02894 	0.0000 	611.0 	611.0 	611.0 	0.0 	0.0 	1	-360.0 	360.0;
    269	288	0.36614 	2.45600 	0.0000 	12.0 	12.0 	12.0 	1.0 	0.0 	1	-360.0 	360.0;
    269	289	1.05930 	5.45360 	0.0000 	6.0 	6.0 	6.0 	1.0 	0.0 	1	-360.0 	360.0;
    269	290	0.15670 	1.69940 	0.0000 	18.0 	18.0 	18.0 	1.0 	0.0 	1	-360.0 	360.0;
    268	283	0.13006 	1.39120 	0.0000 	21.0 	21.0 	21.0 	1.0 	0.0 	1	-360.0 	360.0;
    268	284	0.54484 	3.45720 	0.0000 	9.0 	9.0 	9.0 	1.0 	0.0 	1	-360.0 	360.0;
    268	285	0.15426 	1.67290 	0.0000 	18.0 	18.0 	18.0 	1.0 	0.0 	1	-360.0 	360.0;
    268	286	0.38490 	2.57120 	0.0000 	12.0 	12.0 	12.0 	1.0 	0.0 	1	-360.0 	360.0;
    268	287	0.44120 	2.96680 	0.0000 	10.0 	10.0 	10.0 	1.0 	0.0 	1	-360.0 	360.0;
    273	299	0.23552 	0.99036 	0.0000 	29.0 	29.0 	29.0 	0.0 	0.0 	1	-360.0 	360.0;
    294	300	0.00000 	0.75000 	0.0000 	40.0 	40.0 	40.0 	1.0 	0.0 	1	-360.0 	360.0;
    1	5	0.00100 	0.00600 	0.0000 	4823.0 	4823.0 	4823.0 	0.0 	0.0 	1	-360.0 	360.0;
    2	6	0.00100 	0.00900 	0.0000 	3240.0 	3240.0 	3240.0 	0.0 	0.0 	1	-360.0 	360.0;
    2	8	0.00600 	0.02700 	0.0540 	1061.0 	1061.0 	1061.0 	0.0 	0.0 	1	-360.0 	360.0;
    3	7	0.00000 	0.00300 	0.0000 	9778.0 	9778.0 	9778.0 	0.0 	0.0 	1	-360.0 	360.0;
    3	18	0.00800 	0.06900 	0.1390 	423.0 	423.0 	423.0 	0.0 	0.0 	1	-360.0 	360.0;
    3	129	0.00100 	0.00700 	0.0000 	4149.0 	4149.0 	4149.0 	0.0 	0.0 	1	-360.0 	360.0;
    4	16	0.00200 	0.01900 	1.1270 	1536.0 	1536.0 	1536.0 	0.0 	0.0 	1	-360.0 	360.0;
    5	9	0.00600 	0.02900 	0.0180 	991.0 	991.0 	991.0 	0.0 	0.0 	1	-360.0 	360.0;
    7	12	0.00100 	0.00900 	0.0700 	3240.0 	3240.0 	3240.0 	0.0 	0.0 	1	-360.0 	360.0;
    7	110	0.00100 	0.00700 	0.0140 	4149.0 	4149.0 	4149.0 	0.0 	0.0 	1	-360.0 	360.0;
    8	11	0.01300 	0.05950 	0.0330 	482.0 	482.0 	482.0 	0.0 	0.0 	1	-360.0 	360.0;
    8	14	0.01300 	0.04200 	0.0810 	668.0 	668.0 	668.0 	0.0 	0.0 	1	-360.0 	360.0;
    9	11	0.00600 	0.02700 	0.0130 	1061.0 	1061.0 	1061.0 	0.0 	0.0 	1	-360.0 	360.0;
    11	13	0.00800 	0.03400 	0.0180 	840.0 	840.0 	840.0 	0.0 	0.0 	1	-360.0 	360.0;
    12	20	0.00200 	0.01500 	0.1180 	1939.0 	1939.0 	1939.0 	0.0 	0.0 	1	-360.0 	360.0;
    13	19	0.00600 	0.03400 	0.0160 	850.0 	850.0 	850.0 	0.0 	0.0 	1	-360.0 	360.0;
    14	15	0.01400 	0.04200 	0.0970 	663.0 	663.0 	663.0 	0.0 	0.0 	1	-360.0 	360.0;
    15	31	0.06500 	0.24800 	0.1210 	115.0 	115.0 	115.0 	0.0 	0.0 	1	-360.0 	360.0;
    15	74	0.09900 	0.24800 	0.0350 	110.0 	110.0 	110.0 	0.0 	0.0 	1	-360.0 	360.0;
    15	75	0.09600 	0.36300 	0.0480 	79.0 	79.0 	79.0 	0.0 	0.0 	1	-360.0 	360.0;
    16	36	0.00200 	0.02200 	1.2800 	1328.0 	1328.0 	1328.0 	0.0 	0.0 	1	-360.0 	360.0;
    18	20	0.00200 	0.01800 	0.0360 	1620.0 	1620.0 	1620.0 	0.0 	0.0 	1	-360.0 	360.0;
    18	72	0.01300 	0.08000 	0.1510 	362.0 	362.0 	362.0 	0.0 	0.0 	1	-360.0 	360.0;
    19	21	0.01600 	0.03300 	0.0150 	800.0 	800.0 	800.0 	0.0 	0.0 	1	-360.0 	360.0;
    19	26	0.06900 	0.18600 	0.0980 	148.0 	148.0 	148.0 	0.0 	0.0 	1	-360.0 	360.0;
    20	23	0.00400 	0.03400 	0.2800 	857.0 	857.0 	857.0 	0.0 	0.0 	1	-360.0 	360.0;
    21	22	0.05200 	0.11100 	0.0500 	240.0 	240.0 	240.0 	0.0 	0.0 	1	-360.0 	360.0;
    22	24	0.01900 	0.03900 	0.0180 	677.0 	677.0 	677.0 	0.0 	0.0 	1	-360.0 	360.0;
    23	231	0.00700 	0.06800 	0.1340 	430.0 	430.0 	430.0 	0.0 	0.0 	1	-360.0 	360.0;
    24	25	0.03600 	0.07100 	0.0340 	369.0 	369.0 	369.0 	0.0 	0.0 	1	-360.0 	360.0;
    25	26	0.04500 	0.12000 	0.0650 	229.0 	229.0 	229.0 	0.0 	0.0 	1	-360.0 	360.0;
    25	232	0.04300 	0.13000 	0.0140 	215.0 	215.0 	215.0 	0.0 	0.0 	1	-360.0 	360.0;
    27	28	0.00000 	0.06300 	0.0000 	466.0 	466.0 	466.0 	1.0 	0.0 	1	-360.0 	360.0;
    27	32	0.00250 	0.01200 	0.0130 	2393.0 	2393.0 	2393.0 	0.0 	0.0 	1	-360.0 	360.0;
    27	34	0.00600 	0.02900 	0.0200 	991.0 	991.0 	991.0 	0.0 	0.0 	1	-360.0 	360.0;
    27	35	0.00700 	0.04300 	0.0260 	674.0 	674.0 	674.0 	0.0 	0.0 	1	-360.0 	360.0;
    28	36	0.00100 	0.00800 	0.0420 	3639.0 	3639.0 	3639.0 	0.0 	0.0 	1	-360.0 	360.0;
    29	60	0.01200 	0.06000 	0.0080 	480.0 	480.0 	480.0 	0.0 	0.0 	1	-360.0 	360.0;
    29	63	0.00600 	0.01400 	0.0020 	1926.0 	1926.0 	1926.0 	0.0 	0.0 	1	-360.0 	360.0;
    29	64	0.01000 	0.02900 	0.0030 	957.0 	957.0 	957.0 	0.0 	0.0 	1	-360.0 	360.0;
    30	73	0.00400 	0.02700 	0.0430 	1075.0 	1075.0 	1075.0 	0.0 	0.0 	1	-360.0 	360.0;
    31	32	0.00800 	0.04700 	0.0080 	616.0 	616.0 	616.0 	0.0 	0.0 	1	-360.0 	360.0;
    31	34	0.02200 	0.06400 	0.0070 	434.0 	434.0 	434.0 	0.0 	0.0 	1	-360.0 	360.0;
    31	35	0.01000 	0.03600 	0.0200 	786.0 	786.0 	786.0 	0.0 	0.0 	1	-360.0 	360.0;
    31	43	0.01700 	0.08100 	0.0480 	355.0 	355.0 	355.0 	0.0 	0.0 	1	-360.0 	360.0;
    31	74	0.10200 	0.25400 	0.0330 	108.0 	108.0 	108.0 	0.0 	0.0 	1	-360.0 	360.0;
    31	75	0.04700 	0.12700 	0.0160 	217.0 	217.0 	217.0 	0.0 	0.0 	1	-360.0 	360.0;
    32	35	0.00800 	0.03700 	0.0200 	775.0 	775.0 	775.0 	0.0 	0.0 	1	-360.0 	360.0;
    32	37	0.03200 	0.08700 	0.0400 	317.0 	317.0 	317.0 	0.0 	0.0 	1	-360.0 	360.0;
    33	36	0.00060 	0.00640 	0.4040 	4564.0 	4564.0 	4564.0 	0.0 	0.0 	1	-360.0 	360.0;
    34	42	0.02600 	0.15400 	0.0220 	188.0 	188.0 	188.0 	0.0 	0.0 	1	-360.0 	360.0;
    35	36	0.00000 	0.02900 	0.0000 	1012.0 	1012.0 	1012.0 	1.0 	0.0 	1	-360.0 	360.0;
    35	43	0.06500 	0.19100 	0.0200 	146.0 	146.0 	146.0 	0.0 	0.0 	1	-360.0 	360.0;
    35	44	0.03100 	0.08900 	0.0360 	312.0 	312.0 	312.0 	0.0 	0.0 	1	-360.0 	360.0;
    36	40	0.00200 	0.01400 	0.8060 	2075.0 	2075.0 	2075.0 	0.0 	0.0 	1	-360.0 	360.0;
    37	38	0.02600 	0.07200 	0.0350 	384.0 	384.0 	384.0 	0.0 	0.0 	1	-360.0 	360.0;
    37	42	0.09500 	0.26200 	0.0320 	106.0 	106.0 	106.0 	0.0 	0.0 	1	-360.0 	360.0;
    37	46	0.01300 	0.03900 	0.0160 	714.0 	714.0 	714.0 	0.0 	0.0 	1	-360.0 	360.0;
    38	41	0.02700 	0.08400 	0.0390 	333.0 	333.0 	333.0 	0.0 	0.0 	1	-360.0 	360.0;
    38	47	0.02800 	0.08400 	0.0370 	332.0 	332.0 	332.0 	0.0 	0.0 	1	-360.0 	360.0;
    39	52	0.00700 	0.04100 	0.3120 	706.0 	706.0 	706.0 	0.0 	0.0 	1	-360.0 	360.0;
    39	62	0.00900 	0.05400 	0.4110 	536.0 	536.0 	536.0 	0.0 	0.0 	1	-360.0 	360.0;
    40	68	0.00500 	0.04200 	0.6900 	694.0 	694.0 	694.0 	0.0 	0.0 	1	-360.0 	360.0;
    41	61	0.05200 	0.14500 	0.0730 	191.0 	191.0 	191.0 	0.0 	0.0 	1	-360.0 	360.0;
    41	92	0.04300 	0.11800 	0.0130 	234.0 	234.0 	234.0 	0.0 	0.0 	1	-360.0 	360.0;
    42	87	0.02500 	0.06200 	0.0070 	439.0 	439.0 	439.0 	0.0 	0.0 	1	-360.0 	360.0;
    43	44	0.03100 	0.09400 	0.0430 	297.0 	297.0 	297.0 	0.0 	0.0 	1	-360.0 	360.0;
    44	45	0.03700 	0.10900 	0.0490 	255.0 	255.0 	255.0 	0.0 	0.0 	1	-360.0 	360.0;
    45	48	0.02700 	0.08000 	0.0360 	348.0 	348.0 	348.0 	0.0 	0.0 	1	-360.0 	360.0;
    46	47	0.02500 	0.07300 	0.0350 	381.0 	381.0 	381.0 	0.0 	0.0 	1	-360.0 	360.0;
    47	48	0.03500 	0.10300 	0.0470 	270.0 	270.0 	270.0 	0.0 	0.0 	1	-360.0 	360.0;
    48	49	0.06500 	0.16900 	0.0820 	162.0 	162.0 	162.0 	0.0 	0.0 	1	-360.0 	360.0;
    49	50	0.04600 	0.08000 	0.0360 	318.0 	318.0 	318.0 	0.0 	0.0 	1	-360.0 	360.0;
    49	55	0.15900 	0.53700 	0.0710 	53.0 	53.0 	53.0 	0.0 	0.0 	1	-360.0 	360.0;
    50	51	0.00900 	0.02600 	0.0050 	1067.0 	1067.0 	1067.0 	0.0 	0.0 	1	-360.0 	360.0;
    51	53	0.00200 	0.01300 	0.0150 	2231.0 	2231.0 	2231.0 	0.0 	0.0 	1	-360.0 	360.0;
    52	54	0.00900 	0.06500 	0.4850 	447.0 	447.0 	447.0 	0.0 	0.0 	1	-360.0 	360.0;
    54	56	0.01600 	0.10500 	0.2030 	277.0 	277.0 	277.0 	0.0 	0.0 	1	-360.0 	360.0;
    54	123	0.00100 	0.00700 	0.0130 	4149.0 	4149.0 	4149.0 	0.0 	0.0 	1	-360.0 	360.0;
    55	236	0.02650 	0.17200 	0.0260 	169.0 	169.0 	169.0 	0.0 	0.0 	1	-360.0 	360.0;
    57	190	0.05100 	0.23200 	0.0280 	124.0 	124.0 	124.0 	0.0 	0.0 	1	-360.0 	360.0;
    57	66	0.05100 	0.15700 	0.0230 	178.0 	178.0 	178.0 	0.0 	0.0 	1	-360.0 	360.0;
    58	59	0.03200 	0.10000 	0.0620 	280.0 	280.0 	280.0 	0.0 	0.0 	1	-360.0 	360.0;
    58	237	0.02000 	0.12340 	0.0280 	235.0 	235.0 	235.0 	0.0 	0.0 	1	-360.0 	360.0;
    59	60	0.03600 	0.13100 	0.0680 	216.0 	216.0 	216.0 	0.0 	0.0 	1	-360.0 	360.0;
    59	61	0.03400 	0.09900 	0.0470 	281.0 	281.0 	281.0 	0.0 	0.0 	1	-360.0 	360.0;
    60	64	0.01800 	0.08700 	0.0110 	331.0 	331.0 	331.0 	0.0 	0.0 	1	-360.0 	360.0;
    60	238	0.02560 	0.19300 	0.0000 	151.0 	151.0 	151.0 	0.0 	0.0 	1	-360.0 	360.0;
    61	63	0.02100 	0.05700 	0.0300 	483.0 	483.0 	483.0 	0.0 	0.0 	1	-360.0 	360.0;
    61	66	0.01800 	0.05200 	0.0180 	534.0 	534.0 	534.0 	0.0 	0.0 	1	-360.0 	360.0;
    62	73	0.00400 	0.02700 	0.0500 	1075.0 	1075.0 	1075.0 	0.0 	0.0 	1	-360.0 	360.0;
    62	240	0.02860 	0.20130 	0.3790 	145.0 	145.0 	145.0 	0.0 	0.0 	1	-360.0 	360.0;
    63	64	0.01600 	0.04300 	0.0040 	640.0 	640.0 	640.0 	0.0 	0.0 	1	-360.0 	360.0;
    64	65	0.00100 	0.00600 	0.0070 	4823.0 	4823.0 	4823.0 	0.0 	0.0 	1	-360.0 	360.0;
    64	67	0.01400 	0.07000 	0.0380 	411.0 	411.0 	411.0 	0.0 	0.0 	1	-360.0 	360.0;
    64	239	0.08910 	0.26760 	0.0290 	104.0 	104.0 	104.0 	0.0 	0.0 	1	-360.0 	360.0;
    64	241	0.07820 	0.21270 	0.0220 	130.0 	130.0 	130.0 	0.0 	0.0 	1	-360.0 	360.0;
    65	66	0.00600 	0.02200 	0.0110 	1287.0 	1287.0 	1287.0 	0.0 	0.0 	1	-360.0 	360.0;
    65	69	0.00000 	0.03600 	0.0000 	815.0 	815.0 	815.0 	0.0 	0.0 	1	-360.0 	360.0;
    66	190	0.09900 	0.37500 	0.0510 	76.0 	76.0 	76.0 	0.0 	0.0 	1	-360.0 	360.0;
    67	190	0.02200 	0.10700 	0.0580 	269.0 	269.0 	269.0 	0.0 	0.0 	1	-360.0 	360.0;
    68	173	0.00350 	0.03300 	0.5300 	884.0 	884.0 	884.0 	0.0 	0.0 	1	-360.0 	360.0;
    68	174	0.00350 	0.03300 	0.5300 	884.0 	884.0 	884.0 	0.0 	0.0 	1	-360.0 	360.0;
    70	71	0.00800 	0.06400 	0.1280 	455.0 	455.0 	455.0 	0.0 	0.0 	1	-360.0 	360.0;
    71	72	0.01200 	0.09300 	0.1830 	313.0 	313.0 	313.0 	0.0 	0.0 	1	-360.0 	360.0;
    71	234	0.00600 	0.04800 	0.0920 	607.0 	607.0 	607.0 	0.0 	0.0 	1	-360.0 	360.0;
    74	76	0.04700 	0.11900 	0.0140 	230.0 	230.0 	230.0 	0.0 	0.0 	1	-360.0 	360.0;
    75	77	0.03200 	0.17400 	0.0240 	166.0 	166.0 	166.0 	0.0 	0.0 	1	-360.0 	360.0;
    76	78	0.10000 	0.25300 	0.0310 	108.0 	108.0 	108.0 	0.0 	0.0 	1	-360.0 	360.0;
    76	79	0.02200 	0.07700 	0.0390 	367.0 	367.0 	367.0 	0.0 	0.0 	1	-360.0 	360.0;
    77	84	0.01900 	0.14400 	0.0170 	202.0 	202.0 	202.0 	0.0 	0.0 	1	-360.0 	360.0;
    77	86	0.01700 	0.09200 	0.0120 	314.0 	314.0 	314.0 	0.0 	0.0 	1	-360.0 	360.0;
    78	79	0.27800 	0.42700 	0.0430 	58.0 	58.0 	58.0 	0.0 	0.0 	1	-360.0 	360.0;
    79	82	0.02200 	0.05300 	0.0070 	512.0 	512.0 	512.0 	0.0 	0.0 	1	-360.0 	360.0;
    79	83	0.03800 	0.09200 	0.0120 	295.0 	295.0 	295.0 	0.0 	0.0 	1	-360.0 	360.0;
    79	84	0.04800 	0.12200 	0.0150 	224.0 	224.0 	224.0 	0.0 	0.0 	1	-360.0 	360.0;
    80	82	0.02400 	0.06400 	0.0070 	430.0 	430.0 	430.0 	0.0 	0.0 	1	-360.0 	360.0;
    80	83	0.03400 	0.12100 	0.0150 	234.0 	234.0 	234.0 	0.0 	0.0 	1	-360.0 	360.0;
    81	87	0.05300 	0.13500 	0.0170 	203.0 	203.0 	203.0 	0.0 	0.0 	1	-360.0 	360.0;
    81	88	0.00200 	0.00400 	0.0020 	6559.0 	6559.0 	6559.0 	0.0 	0.0 	1	-360.0 	360.0;
    81	89	0.04500 	0.35400 	0.0440 	83.0 	83.0 	83.0 	0.0 	0.0 	1	-360.0 	360.0;
    81	90	0.05000 	0.17400 	0.0220 	163.0 	163.0 	163.0 	0.0 	0.0 	1	-360.0 	360.0;
    82	83	0.01600 	0.03800 	0.0040 	712.0 	712.0 	712.0 	0.0 	0.0 	1	-360.0 	360.0;
    83	85	0.04300 	0.06400 	0.0270 	381.0 	381.0 	381.0 	0.0 	0.0 	1	-360.0 	360.0;
    84	86	0.01900 	0.06200 	0.0080 	453.0 	453.0 	453.0 	0.0 	0.0 	1	-360.0 	360.0;
    85	88	0.07600 	0.13000 	0.0440 	195.0 	195.0 	195.0 	0.0 	0.0 	1	-360.0 	360.0;
    85	233	0.04400 	0.12400 	0.0150 	223.0 	223.0 	223.0 	0.0 	0.0 	1	-360.0 	360.0;
    86	87	0.01200 	0.08800 	0.0110 	331.0 	331.0 	331.0 	0.0 	0.0 	1	-360.0 	360.0;
    86	90	0.15700 	0.40000 	0.0470 	69.0 	69.0 	69.0 	0.0 	0.0 	1	-360.0 	360.0;
    88	235	0.07400 	0.20800 	0.0260 	133.0 	133.0 	133.0 	0.0 	0.0 	1	-360.0 	360.0;
    89	90	0.07000 	0.18400 	0.0210 	149.0 	149.0 	149.0 	0.0 	0.0 	1	-360.0 	360.0;
    89	92	0.10000 	0.27400 	0.0310 	101.0 	101.0 	101.0 	0.0 	0.0 	1	-360.0 	360.0;
    89	93	0.10900 	0.39300 	0.0360 	72.0 	72.0 	72.0 	0.0 	0.0 	1	-360.0 	360.0;
    90	91	0.14200 	0.40400 	0.0500 	69.0 	69.0 	69.0 	0.0 	0.0 	1	-360.0 	360.0;
    91	93	0.01700 	0.04200 	0.0060 	648.0 	648.0 	648.0 	0.0 	0.0 	1	-360.0 	360.0;
    94	101	0.00360 	0.01990 	0.0040 	1451.0 	1451.0 	1451.0 	0.0 	0.0 	1	-360.0 	360.0;
    95	99	0.00200 	0.10490 	0.0010 	280.0 	280.0 	280.0 	0.0 	0.0 	1	-360.0 	360.0;
    96	97	0.00010 	0.00180 	0.0170 	9900.0 	16271.0 	16271.0 	0.0 	0.0 	1	-360.0 	360.0;
    97	98	0.00000 	0.02710 	0.0000 	1083.0 	1083.0 	1083.0 	0.0 	0.0 	1	-360.0 	360.0;
    97	245	0.00000 	0.61630 	0.0000 	48.0 	48.0 	48.0 	0.0 	0.0 	1	-360.0 	360.0;
    245	99	0.00000 	-0.36970 	0.0000 	80.0 	80.0 	80.0 	0.0 	0.0 	1	-360.0 	360.0;
    97	100	0.00220 	0.29150 	0.0000 	101.0 	101.0 	101.0 	0.0 	0.0 	1	-360.0 	360.0;
    98	99	0.00000 	0.03390 	0.0000 	866.0 	866.0 	866.0 	0.0 	0.0 	1	-360.0 	360.0;
    98	100	0.00000 	0.10000 	0.0000 	504.0 	504.0 	504.0 	0.0 	0.0 	1	-360.0 	360.0;
    101	102	0.08080 	0.23440 	0.0290 	119.0 	119.0 	119.0 	0.0 	0.0 	1	-360.0 	360.0;
    101	104	0.09650 	0.36690 	0.0540 	78.0 	78.0 	78.0 	0.0 	0.0 	1	-360.0 	360.0;
    102	103	0.03600 	0.10760 	0.1170 	259.0 	259.0 	259.0 	0.0 	0.0 	1	-360.0 	360.0;
    102	104	0.04760 	0.14140 	0.1490 	197.0 	197.0 	197.0 	0.0 	0.0 	1	-360.0 	360.0;
    104	105	0.00060 	0.01970 	0.0000 	1489.0 	1489.0 	1489.0 	0.0 	0.0 	1	-360.0 	360.0;
    105	106	0.00590 	0.04050 	0.2500 	717.0 	717.0 	717.0 	1.0 	0.0 	1	-360.0 	360.0;
    105	108	0.01150 	0.11060 	0.1850 	264.0 	264.0 	264.0 	1.0 	0.0 	1	-360.0 	360.0;
    105	111	0.01980 	0.16880 	0.3210 	185.0 	185.0 	185.0 	1.0 	0.0 	1	-360.0 	360.0;
    105	136	0.00500 	0.05000 	0.3300 	584.0 	584.0 	584.0 	1.0 	0.0 	1	-360.0 	360.0;
    105	137	0.00770 	0.05380 	0.3350 	540.0 	540.0 	540.0 	1.0 	0.0 	1	-360.0 	360.0;
    105	148	0.01650 	0.11570 	0.1710 	251.0 	251.0 	251.0 	1.0 	0.0 	1	-360.0 	360.0;
    106	107	0.00590 	0.05770 	0.0950 	506.0 	506.0 	506.0 	0.0 	0.0 	1	-360.0 	360.0;
    106	113	0.00490 	0.03360 	0.2080 	864.0 	864.0 	864.0 	0.0 	0.0 	1	-360.0 	360.0;
    106	147	0.00590 	0.05770 	0.0950 	506.0 	506.0 	506.0 	0.0 	0.0 	1	-360.0 	360.0;
    107	109	0.00780 	0.07730 	0.1260 	378.0 	378.0 	378.0 	0.0 	0.0 	1	-360.0 	360.0;
    107	112	0.00260 	0.01930 	0.0300 	1507.0 	1507.0 	1507.0 	0.0 	0.0 	1	-360.0 	360.0;
    108	109	0.00760 	0.07520 	0.1220 	389.0 	389.0 	389.0 	0.0 	0.0 	1	-360.0 	360.0;
    108	112	0.00210 	0.01860 	0.0300 	1568.0 	1568.0 	1568.0 	0.0 	0.0 	1	-360.0 	360.0;
...
];